Using: /opt/synopsys-2019/app/hspice/P-2019.06-SP2-3/hspice/linux64/hspice  -i '/DCNFS/users/student/mpang/simulation/Fourbit,testbenchschematic,schematic/history_1/simulation/default/HSPICE/nominal/netlist/input.spi' -o hspice

>info:         ***** hspice job concluded
